# generated using pymatgen
data_1001500
loop_
 _publ_author_name
  'Leclaire, A'
  'Borel, M M'
  'Grandin, A'
  'Raveau, B'
_publ_section_title
'A niobium phosphate with a nasicon structure: Na~0.5~Nb~2~(PO~4~)~3~'
_journal_coden_ASTM   MRBUAC
_journal_name_full   'Materials Research Bulletin'
_journal_page_first   207
_journal_page_last   211
_journal_paper_doi   10.1016/0025-5408(91)90011-A
_journal_volume   26
_journal_year   1991
_chemical_formula_structural   'Na0.5 Nb2 (P O4)3'
_chemical_formula_sum   'Na0.5 Nb2 O12 P3'
_chemical_name_systematic   'Sodium niobium phosphate (0.5/2/3)'
_space_group_IT_number   167
_symmetry_cell_setting   trigonal
_symmetry_space_group_name_Hall   '-R 3 2"c'
_symmetry_space_group_name_H-M   'R -3 c :H'
_cell_angle_alpha   90
_cell_angle_beta   90
_cell_angle_gamma   120
_cell_formula_units_Z   6
_cell_length_a   8.7362(9)
_cell_length_b   8.7362(9)
_cell_length_c   22.093(2)
_cell_volume   1460.3
_refine_ls_R_factor_all   0.029
_cod_original_sg_symbol_H-M   'R -3 c H'
_cod_original_formula_sum   'Na.5 Nb2 O12 P3'
_cod_database_code   1001500
loop_
 _symmetry_equiv_pos_as_xyz
  x,y,z
  -y,x-y,z
  y-x,-x,z
  -y,-x,1/2+z
  x,x-y,1/2+z
  y-x,y,1/2+z
  -x,-y,-z
  y,y-x,-z
  x-y,x,-z
  y,x,1/2-z
  -x,y-x,1/2-z
  x-y,-y,1/2-z
  1/3+x,2/3+y,2/3+z
  2/3+x,1/3+y,1/3+z
  1/3-y,2/3+x-y,2/3+z
  2/3-y,1/3+x-y,1/3+z
  1/3-x+y,2/3-x,2/3+z
  2/3-x+y,1/3-x,1/3+z
  1/3-y,2/3-x,1/6+z
  2/3-y,1/3-x,5/6+z
  1/3+x,2/3+x-y,1/6+z
  2/3+x,1/3+x-y,5/6+z
  1/3-x+y,2/3+y,1/6+z
  2/3-x+y,1/3+y,5/6+z
  1/3-x,2/3-y,2/3-z
  2/3-x,1/3-y,1/3-z
  1/3+y,2/3-x+y,2/3-z
  2/3+y,1/3-x+y,1/3-z
  1/3+x-y,2/3+x,2/3-z
  2/3+x-y,1/3+x,1/3-z
  1/3+y,2/3+x,1/6-z
  2/3+y,1/3+x,5/6-z
  1/3-x,2/3-x+y,1/6-z
  2/3-x,1/3-x+y,5/6-z
  1/3+x-y,2/3-y,1/6-z
  2/3+x-y,1/3-y,5/6-z
loop_
 _atom_site_label
 _atom_site_type_symbol
 _atom_site_symmetry_multiplicity
 _atom_site_Wyckoff_symbol
 _atom_site_fract_x
 _atom_site_fract_y
 _atom_site_fract_z
 _atom_site_occupancy
 _atom_site_attached_hydrogens
 _atom_site_calc_flag
  Nb1  Nb4+  12  c  0.  0.  0.14377(2)  1.  0  d
  Na1  Na1+  6  b  0.  0.  0.  0.5  0  d
  P1  P5+  18  e  0.2882(1)  0.  0.25  1.  0  d
  O1  O2-  36  f  0.0202(3)  0.2006(3)  0.1932(1)  1.  0  d
  O2  O2-  36  f  0.1949(3)  0.1696(3)  0.0881(1)  1.  0  d
loop_
 _atom_type_symbol
 _atom_type_oxidation_number
  Nb4+  4.250
  Na1+  1.000
  P5+  5.000
  O2-  -2.000
