# generated using pymatgen
data_1539203
loop_
 _publ_author_name
  'Vereshchagin, L.F.'
  'Kabalkina, S.S.'
_publ_section_title
'Phase transitions in antimony at high pressures'
_journal_name_full   'Soviet Physics - JETP'
_journal_page_first   274
_journal_page_last   276
_journal_volume   20
_journal_year   1965
_chemical_formula_sum   Sb
_space_group_IT_number   194
_symmetry_space_group_name_Hall   '-P 6c 2c'
_symmetry_space_group_name_H-M   'P 63/m m c'
_cell_angle_alpha   90
_cell_angle_beta   90
_cell_angle_gamma   120
_cell_formula_units_Z   2
_cell_length_a   3.369
_cell_length_b   3.369
_cell_length_c   5.33
_cell_volume   52.391
_citation_journal_id_ASTM   SPHJAR
_cod_data_source_file   Vereshchagin_SPHJAR_1965_1835.cif
_cod_data_source_block   Sb1
_cod_original_cell_volume   52.39138
_cod_original_formula_sum   Sb1
_cod_database_code   1539203
loop_
 _symmetry_equiv_pos_as_xyz
  x,y,z
  x-y,x,z+1/2
  -y,x-y,z
  -x,-y,z+1/2
  -x+y,-x,z
  y,-x+y,z+1/2
  -y,-x,-z+1/2
  x-y,-y,-z
  x,x-y,-z+1/2
  y,x,-z
  -x+y,y,-z+1/2
  -x,-x+y,-z
  -x,-y,-z
  -x+y,-x,-z-1/2
  y,-x+y,-z
  x,y,-z-1/2
  x-y,x,-z
  -y,x-y,-z-1/2
  y,x,z-1/2
  -x+y,y,z
  -x,-x+y,z-1/2
  -y,-x,z
  x-y,-y,z-1/2
  x,x-y,z
loop_
 _atom_site_label
 _atom_site_type_symbol
 _atom_site_fract_x
 _atom_site_fract_y
 _atom_site_fract_z
 _atom_site_occupancy
 _atom_site_U_iso_or_equiv
  Sb1  Sb  0.3333  0.6667  0.25  1  0.0
loop_
 _cod_related_entry_id
 _cod_related_entry_database
 _cod_related_entry_code
  1  PubChem  5354495
