# generated using pymatgen
data_4031381
loop_
 _publ_author_name
  'Beall, G.W.'
  'Milligan, W.O.'
  'Wolcott, H.A.'
_publ_section_title
'Structural trends in the lanthanide trihydroxides'
_journal_name_full   'Journal of Inorganic and Nuclear Chemistry'
_journal_page_first   65
_journal_page_last   70
_journal_volume   39
_journal_year   1977
_chemical_formula_sum   'H3 La O3'
_chemical_name_systematic   'La (O H)3'
_space_group_IT_number   176
_symmetry_space_group_name_Hall   '-P 6c'
_symmetry_space_group_name_H-M   'P 63/m'
_cell_angle_alpha   90
_cell_angle_beta   90
_cell_angle_gamma   120
_cell_formula_units_Z   2
_cell_length_a   6.547
_cell_length_b   6.547
_cell_length_c   3.854
_cell_volume   143.063
_citation_journal_id_ASTM   JINCAO
_cod_data_source_file   Beall_JINCAO_1977_176.cif
_cod_data_source_block   H3La1O3
_cod_original_cell_volume   143.0629
_cod_original_formula_sum   'H3 La1 O3'
_cod_database_code   4031381
loop_
 _symmetry_equiv_pos_as_xyz
  x,y,z
  x-y,x,z+1/2
  -y,x-y,z
  -x,-y,z+1/2
  -x+y,-x,z
  y,-x+y,z+1/2
  -x,-y,-z
  -x+y,-x,-z-1/2
  y,-x+y,-z
  x,y,-z-1/2
  x-y,x,-z
  -y,x-y,-z-1/2
loop_
 _atom_site_label
 _atom_site_type_symbol
 _atom_site_fract_x
 _atom_site_fract_y
 _atom_site_fract_z
 _atom_site_occupancy
 _atom_site_U_iso_or_equiv
  O1  O-2  0.3916  0.3095  0.25  1  0.0
  La1  La+3  0.33333  0.66667  0.25  1  0.0
