# generated using pymatgen
data_5910253
loop_
 _publ_author_name
  'Wyckoff, R. W. G.'
_publ_section_title
;
Pages 429 & 431 from the Structure of Crystals, vol. 3 by Wyckoff R W
G.  published by Interscience Publishers, Inc. in 1951
;
_journal_name_full   'The Structure of Crystals'
_journal_page_first   429
_journal_page_last   431
_journal_volume   3
_journal_year   1951
_chemical_formula_structural   GeP2O7
_chemical_formula_sum   'Ge O7 P2'
_space_group_IT_number   205
_symmetry_cell_setting   cubic
_symmetry_Int_Tables_number   205
_symmetry_space_group_name_Hall   '-P 2ac 2ab 3'
_symmetry_space_group_name_H-M   'P a -3'
_audit_creation_date   2006-08-07
_audit_creation_method
;
Pages 429 & 431 from the Structure of Crystals, vol. 3 by Wyckoff R W
G.  published by Interscience Publishers, Inc. in 1951
;
_audit_update_record
'created by Girish Upreti, Portland State University'
_cell_angle_alpha   90
_cell_angle_beta   90
_cell_angle_gamma   90
_cell_length_a   7.520
_cell_length_b   7.520
_cell_length_c   7.520
_cell_volume   425.259
_cod_original_formula_sum   'Ge P2 O7'
_cod_database_code   5910253
loop_
 _symmetry_equiv_pos_as_xyz
  x,y,z
  z,x,y
  y,z,x
  -y+1/2,-z,x+1/2
  z+1/2,-x+1/2,-y
  -y,z+1/2,-x+1/2
  -z+1/2,-x,y+1/2
  -z,x+1/2,-y+1/2
  y+1/2,-z+1/2,-x
  x+1/2,-y+1/2,-z
  -x,y+1/2,-z+1/2
  -x+1/2,-y,z+1/2
  -x,-y,-z
  -z,-x,-y
  -y,-z,-x
  y+1/2,z,-x+1/2
  -z+1/2,x+1/2,y
  y,-z+1/2,x+1/2
  z+1/2,x,-y+1/2
  z,-x+1/2,y+1/2
  -y+1/2,z+1/2,x
  -x+1/2,y+1/2,z
  x,-y+1/2,z+1/2
  x+1/2,y,-z+1/2
loop_
 _atom_site_label
 _atom_site_fract_x
 _atom_site_fract_y
 _atom_site_fract_z
  Ge1  0.00000  0.00000  0.00000
  P1  0.39000  0.39000  0.39000
  O1  0.50000  0.50000  0.50000
  O2  0.39400  0.21800  0.45800
loop_
 _cod_changelog_entry_id
 _cod_changelog_entry_author
 _cod_changelog_entry_date
 _cod_changelog_entry_text
  1  'Vaitkus, Antanas'  2025-10-31T17:45:06+02:00
;
Removed explicitly specified symmetrically equivalent atom sites that
do not  belong to the asymmetric unit.
;

